2CHW_ligand2
                    3D
 Schrodinger Suite 2022-3.
 31 35  0  0  1  0            999 V2000
   50.8990   16.3190   31.0490 C   0  0  0  0  0  0
   49.8180   16.4300   31.9910 O   0  0  0  0  0  0
   49.0900   17.5720   31.8950 C   0  0  0  0  0  0
   49.4830   18.6530   31.1140 C   0  0  0  0  0  0
   48.6960   19.8030   31.0690 C   0  0  0  0  0  0
   47.5060   19.8780   31.8010 C   0  0  0  0  0  0
   47.1210   18.7960   32.5900 C   0  0  0  0  0  0
   47.9120   17.6500   32.6170 C   0  0  0  0  0  0
   47.4980   16.5900   33.4170 N   0  0  0  0  0  0
   48.0760   16.4810   34.6750 C   0  0  0  0  0  0
   48.9180   17.3100   34.9960 O   0  0  0  0  0  0
   47.6950   15.4550   35.5310 C   0  0  0  0  0  0
   48.2370   15.2870   36.8230 C   0  0  0  0  0  0
   49.4490   16.3440   37.5170 Cl  0  0  0  0  0  0
   47.7970   14.2260   37.6120 C   0  0  0  0  0  0
   46.8480   13.3370   37.1520 C   0  0  0  0  0  0
   46.3170   13.5250   35.8880 C   0  0  0  0  0  0
   46.7300   14.5650   35.0630 C   0  0  0  0  0  0
   46.1850   14.6820   33.8300 N   0  0  0  0  0  0
   46.5280   15.6630   32.9870 C   0  0  0  0  0  0
   45.9320   15.7890   31.5640 C   0  0  0  0  0  0
   44.6330   14.5990   31.0330 S   0  0  0  0  0  0
   45.2080   13.0480   30.3300 C   0  0  0  0  0  0
   46.5170   12.6520   30.2720 C   0  0  0  0  0  0
   47.6430   13.2240   30.6340 N   0  0  0  0  0  0
   48.6300   12.3630   30.3220 C   0  0  0  0  0  0
   48.1340   11.2520   29.7580 N   0  0  0  0  0  0
   46.8160   11.3990   29.7150 C   0  0  0  0  0  0
   45.8470   10.5960   29.2640 N   0  0  0  0  0  0
   44.5940   11.0010   29.3190 C   0  0  0  0  0  0
   44.2880   12.1810   29.8280 N   0  0  0  0  0  0
  1  2  1  0  0  0
  2  3  1  0  0  0
  3  4  2  0  0  0
  3  8  1  0  0  0
  4  5  1  0  0  0
  5  6  2  0  0  0
  6  7  1  0  0  0
  7  8  2  0  0  0
  8  9  1  0  0  0
  9 10  1  0  0  0
  9 20  1  0  0  0
 10 11  2  0  0  0
 10 12  1  0  0  0
 12 13  2  0  0  0
 12 18  1  0  0  0
 13 14  1  0  0  0
 13 15  1  0  0  0
 15 16  2  0  0  0
 16 17  1  0  0  0
 17 18  2  0  0  0
 18 19  1  0  0  0
 19 20  2  0  0  0
 20 21  1  0  0  0
 21 22  1  0  0  0
 22 23  1  0  0  0
 23 24  2  0  0  0
 23 31  1  0  0  0
 24 25  1  0  0  0
 24 28  1  0  0  0
 25 26  2  0  0  0
 26 27  1  0  0  0
 27 28  1  0  0  0
 28 29  2  0  0  0
 29 30  1  0  0  0
 30 31  2  0  0  0
M  END
> <s_m_entry_id>
3

> <s_m_entry_name>
2chw.1_ligand2

> <s_pdb_PDB_TITLE>
A PHARMACOLOGICAL MAP OF THE PI3-K FAMILY DEFINES A ROLE FOR P110 ALPHA IN SIGNALING: THE STRUCTURE OF COMPLEX OF PHOSPHOINOSITIDE 3- KINASE GAMMA WITH INHIBITOR PIK-39

> <s_pdb_PDB_ID>
2CHW

> <r_pdb_PDB_CRYST1_a>
143.804

> <r_pdb_PDB_CRYST1_b>
67.523

> <r_pdb_PDB_CRYST1_c>
106.311

> <r_pdb_PDB_CRYST1_alpha>
90

> <r_pdb_PDB_CRYST1_beta>
95.45

> <r_pdb_PDB_CRYST1_gamma>
90

> <s_pdb_PDB_CRYST1_Space_Group>
C 1 2 1

> <i_pdb_PDB_CRYST1_z>
4

> <s_pdb_PDB_CLASSIFICATION>
TRANSFERASE/INHIBITOR

> <s_pdb_PDB_DEPOSITION_DATE>
16-MAR-06

> <s_pdb_PDB_format_version>
3.30

> <r_pdb_PDB_R>
0.237

> <r_pdb_PDB_Rfree>
0.299

> <r_pdb_PDB_RESOLUTION>
2.6

> <s_pdb_PDB_EXPDTA>
X-RAY DIFFRACTION

> <r_pdb_PDB_EXPDTA_TEMPERATURE>
100

> <r_pdb_PDB_EXPDTA_PH>
7.5

> <s_pdb_PDB_REMARK_350_Biomolecule_1_Transform_1_Chains>
A

> <s_pdb_PDB_REMARK_350_Biomolecule_1_Transform_1_Matrix_1>
1.000000 0.000000 0.000000   0.000000;0.000000 1.000000 0.000000   0.000000;0.000000 0.000000 1.000000   0.000000

> <s_m_Source_Path>
/Users/pwalters

> <s_m_Source_File>
2chw.pdb

> <i_m_Source_File_Index>
1

> <s_m_subgroup_title>
2CHW_split_by_structure

> <s_m_subgroupid>
2CHW_split_by_structure

> <b_m_subgroup_collapsed>
0

$$$$
